! This file was written by the model and records the non-default parameters used at run-time.

! === module MOM ===
ADIABATIC = True                !   [Boolean] default = False
                                ! There are no diapycnal mass fluxes if ADIABATIC is true.  This assumes that KD
                                ! = 0.0 and that there is no buoyancy forcing, but makes the model faster by
                                ! eliminating subroutine calls.
BULKMIXEDLAYER = False          !   [Boolean] default = True
                                ! If true, use a Kraus-Turner-like bulk mixed layer with transitional buffer
                                ! layers.  Layers 1 through NKML+NKBL have variable densities. There must be at
                                ! least NKML+NKBL+1 layers if BULKMIXEDLAYER is true. BULKMIXEDLAYER can not be
                                ! used with USE_REGRIDDING. The default is influenced by ENABLE_THERMODYNAMICS.
DT = 1200.0                      !   [s]
                                ! The (baroclinic) dynamics time step.  The time-step that is actually used will
                                ! be an integer fraction of the forcing time-step (DT_FORCING in ocean-only mode
                                ! or the coupling timestep in coupled mode.)
BOUND_SALINITY = True           !   [Boolean] default = False
                                ! If true, limit salinity to being positive. (The sea-ice model may ask for more
                                ! salt than is available and drive the salinity negative otherwise.)
MIN_SALINITY = 0.01             !   [PPT] default = 0.0
                                ! The minimum value of salinity when BOUND_SALINITY=True.
C_P = 3992.0                    !   [J kg-1 K-1] default = 3991.86795711963
                                ! The heat capacity of sea water, approximated as a constant. This is only used
                                ! if ENABLE_THERMODYNAMICS is true. The default value is from the TEOS-10
                                ! definition of conservative temperature.
P_REF =2.0e7                    !   [Pa] default = 2.0E+07
                                ! The pressure that is used for calculating the coordinate density.  (1 Pa = 1e4
                                ! dbar, so 2e7 is commonly used.) This is only used if USE_EOS and
                                ! ENABLE_THERMODYNAMICS are true.

! === module MOM_domains ===
REENTRANT_X = True              !   [Boolean] default = True
                                ! If true, the domain is zonally reentrant.
REENTRANT_Y = False             !   [Boolean] default = False
TRIPOLAR_N = True               !   [Boolean] default = False
                                ! Use tripolar connectivity at the northern edge of the domain.  With
                                ! TRIPOLAR_N, NIGLOBAL must be even.
NIGLOBAL = 1440                 !
                                ! The total number of thickness grid points in the x-direction in the physical
                                ! domain. With STATIC_MEMORY_ this is set in MOM_memory.h at compile time.
NJGLOBAL = 1161                 !
                                ! The total number of thickness grid points in the y-direction in the physical
                                ! domain. With STATIC_MEMORY_ this is set in MOM_memory.h at compile time.

! === module MOM_fixed_initialization ===
INPUTDIR = "INPUT"              ! default = "."
                                ! The directory in which input files are found.
SAVE_INITIAL_CONDS = True       !   [Boolean] default = False
                                ! If true, write the initial conditions to a file given by IC_OUTPUT_FILE.
IC_OUTPUT_FILE = "IceShelf_IC"  ! default = "MOM_IC"
! === module MOM_grid_init ===
GRID_CONFIG = "mosaic"          !
                                ! A character string that determines the method for defining the horizontal
                                ! grid.  Current options are:
                                !     mosaic - read the grid from a mosaic (supergrid)
                                !              file set by GRID_FILE.
                                !     cartesian - use a (flat) Cartesian grid.
                                !     spherical - use a simple spherical grid.
                                !     mercator - use a Mercator spherical grid.
GRID_FILE = "ocean_hgrid.nc"      !
                                ! Name of the file from which to read horizontal grid data.
TOPO_CONFIG = "file"            !
                                ! This specifies how bathymetry is specified:
                                !     file - read bathymetric information from the file
                                !       specified by (TOPO_FILE).
                                !     flat - flat bottom set to MAXIMUM_DEPTH.
                                !     bowl - an analytically specified bowl-shaped basin
                                !       ranging between MAXIMUM_DEPTH and MINIMUM_DEPTH.
                                !     spoon - a similar shape to 'bowl', but with an vertical
                                !       wall at the southern face.
                                !     halfpipe - a zonally uniform channel with a half-sine
                                !       profile in the meridional direction.
                                !     bbuilder - build topography from list of functions.
                                !     benchmark - use the benchmark test case topography.
                                !     Neverworld - use the Neverworld test case topography.
                                !     DOME - use a slope and channel configuration for the
                                !       DOME sill-overflow test case.
                                !     ISOMIP - use a slope and channel configuration for the
                                !       ISOMIP test case.
                                !     DOME2D - use a shelf and slope configuration for the
                                !       DOME2D gravity current/overflow test case.
                                !     Kelvin - flat but with rotated land mask.
                                !     seamount - Gaussian bump for spontaneous motion test case.
                                !     dumbbell - Sloshing channel with reservoirs on both ends.
                                !     shelfwave - exponential slope for shelfwave test case.
                                !     Phillips - ACC-like idealized topography used in the Phillips config.
                                !     dense - Denmark Strait-like dense water formation and overflow.
                                !     USER - call a user modified routine.
MINIMUM_DEPTH = 1.0             !   [m] default = 0.0
                                ! If MASKING_DEPTH is unspecified, then anything shallower than MINIMUM_DEPTH is
                                ! assumed to be land and all fluxes are masked out. If MASKING_DEPTH is
                                ! specified, then all depths shallower than MINIMUM_DEPTH but deeper than
                                ! MASKING_DEPTH are rounded to MINIMUM_DEPTH.
MAXIMUM_DEPTH = 6500.0          !   [m]
                                ! The maximum depth of the ocean.
CHANNEL_CONFIG = "list"         ! default = "none"
                                ! A parameter that determines which set of channels are
                                ! restricted to specific  widths.  Options are:
                                !     none - All channels have the grid width.
                                !     global_1deg - Sets 16 specific channels appropriate
                                !       for a 1-degree model, as used in CM2G.
                                !     list - Read the channel locations and widths from a
                                !       text file, like MOM_channel_list in the MOM_SIS
                                !       test case.
                                !     file - Read open face widths everywhere from a
                                !       NetCDF file on the model grid.
CHANNEL_LIST_FILE = "MOM_channels_global_025" ! default = "MOM_channel_list"
                                ! The file from which the list of narrowed channels is read.

! === module MOM_verticalGrid ===
! Parameters providing information about the vertical grid.
RHO_0 = 1027.0                  !   [kg m-3] default = 1035.0
                                ! The mean ocean density used with BOUSSINESQ true to calculate accelerations
                                ! and the mass for conservation properties, or with BOUSSINSEQ false to convert
                                ! some parameters from vertical units of m to kg m-2.
NK = 25                         !   [nondim]
                                ! The number of model layers.

! === module MOM_EOS ===
EQN_OF_STATE = "LINEAR"         ! default = "WRIGHT"
                                ! EQN_OF_STATE determines which ocean equation of state should be used.
                                ! Currently, the valid choices are "LINEAR", "UNESCO", "WRIGHT", "NEMO" and
                                ! "TEOS10". This is only used if USE_EOS is true.
RHO_T0_S0 = 999.9106806711001   !   [kg m-3] default = 1000.0
                                ! When EQN_OF_STATE=LINEAR, this is the density at T=0, S=0.
DRHO_DT = -0.0383569483         !   [kg m-3 K-1] default = -0.2
                                ! When EQN_OF_STATE=LINEAR, this is the partial derivative of density with
                                ! temperature.
DRHO_DS = 0.805876093           !   [kg m-3 PSU-1] default = 0.8
                                ! When EQN_OF_STATE=LINEAR, this is the partial derivative of density with
                                ! salinity.
EOS_QUADRATURE = True           !   [Boolean] default = False
                                ! If true, always use the generic (quadrature) code code for the integrals of
                                ! density.

! === module MOM_restart ===
RESTART_CHECKSUMS_REQUIRED = False !   [Boolean] default = True
                                ! If true, require the restart checksums to match and error out otherwise. Users
                                ! may want to avoid this comparison if for example the restarts are made from a
                                ! run with a different mask_table than the current run, in which case the
                                ! checksums will not match and cause crash.
RESTINT = 1.0                  !   [days] default = 0.0
                                ! The interval between saves of the restart file in units of TIMEUNIT.  Use 0
                                ! (the default) to not save incremental restart files at all.
! === module MOM_tracer_flow_control ===

! === module MOM_coord_initialization ===
COORD_CONFIG = "linear"         ! default = "none"
                                ! This specifies how layers are to be defined:
                                !     ALE or none - used to avoid defining layers in ALE mode
                                !     file - read coordinate information from the file
                                !       specified by (COORD_FILE).
                                !     BFB - Custom coords for buoyancy-forced basin case
                                !       based on SST_S, T_BOT and DRHO_DT.
                                !     linear - linear based on interfaces not layers
                                !     layer_ref - linear based on layer densities
                                !     ts_ref - use reference temperature and salinity
                                !     ts_range - use range of temperature and salinity
                                !       (T_REF and S_REF) to determine surface density
                                !       and GINT calculate internal densities.
                                !     gprime - use reference density (RHO_0) for surface
                                !       density and GINT calculate internal densities.
                                !     ts_profile - use temperature and salinity profiles
                                !       (read from COORD_FILE) to set layer densities.
                                !     USER - call a user modified routine.
LIGHTEST_DENSITY = 1027.1524    !   [kg m-3] default = 1027.0
                                ! The reference potential density used for the surface interface.

! === module MOM_state_initialization ===
THICKNESS_CONFIG = "ISOMIP"     ! default = "uniform"
                                ! A string that determines how the initial layer thicknesses are specified for a
                                ! new run:
                                !     file - read interface heights from the file specified
                                !     thickness_file - read thicknesses from the file specified
                                !       by (THICKNESS_FILE).
                                !     coord - determined by ALE coordinate.
                                !     uniform - uniform thickness layers evenly distributed
                                !       between the surface and MAXIMUM_DEPTH.
                                !     list - read a list of positive interface depths.
                                !     DOME - use a slope and channel configuration for the
                                !       DOME sill-overflow test case.
                                !     ISOMIP - use a configuration for the
                                !       ISOMIP test case.
                                !     benchmark - use the benchmark test case thicknesses.
                                !     Neverworld - use the Neverworld test case thicknesses.
                                !     search - search a density profile for the interface
                                !       densities. This is not yet implemented.
                                !     circle_obcs - the circle_obcs test case is used.
                                !     DOME2D - 2D version of DOME initialization.
                                !     adjustment2d - 2D lock exchange thickness ICs.
                                !     sloshing - sloshing gravity thickness ICs.
                                !     seamount - no motion test with seamount ICs.
                                !     dumbbell - sloshing channel ICs.
                                !     soliton - Equatorial Rossby soliton.
                                !     rossby_front - a mixed layer front in thermal wind balance.
                                !     USER - call a user modified routine.
TS_CONFIG = "fit"               !
                                ! A string that determines how the initial temperatures and salinities are
                                ! specified for a new run:
                                !     file - read velocities from the file specified
                                !       by (TS_FILE).
                                !     fit - find the temperatures that are consistent with
                                !       the layer densities and salinity S_REF.
                                !     TS_profile - use temperature and salinity profiles
                                !       (read from TS_FILE) to set layer densities.
                                !     benchmark - use the benchmark test case T & S.
                                !     linear - linear in logical layer space.
                                !     DOME2D - 2D DOME initialization.
                                !     ISOMIP - ISOMIP initialization.
                                !     adjustment2d - 2d lock exchange T/S ICs.
                                !     sloshing - sloshing mode T/S ICs.
                                !     seamount - no motion test with seamount ICs.
                                !     dumbbell - sloshing channel ICs.
                                !     rossby_front - a mixed layer front in thermal wind balance.
                                !     SCM_CVMix_tests - used in the SCM CVMix tests.
                                !     USER - call a user modified routine.
T_REF = -0.5                    !   [degC]
                                ! A reference temperature used in initialization.
FIT_SALINITY = True             !   [Boolean] default = False
                                ! If true, accept the prescribed temperature and fit the salinity; otherwise
                                ! take salinity and fit temperature.

! === module MOM_diag_mediator ===
NUM_DIAG_COORDS = 2             ! default = 1
                                ! The number of diagnostic vertical coordinates to use. For each coordinate, an
                                ! entry in DIAG_COORDS must be provided.
DIAG_COORDS = "z Z ZSTAR", "rho2 RHO2 RHO" !
                                ! A list of string tuples associating diag_table modules to a coordinate
                                ! definition used for diagnostics. Each string is of the form
                                ! "MODULE_SUFFIX,PARAMETER_SUFFIX,COORDINATE_NAME".
AVAILABLE_DIAGS_FILE = "available_diags.000288" ! default = "available_diags.000000"
                                ! A file into which to write a list of all available ocean diagnostics that can
                                ! be included in a diag_table.
DIAG_COORD_DEF_RHO2 = "RFNC1:35,999.5,1028,1028.5,8.,1038.,0.0078125" ! default = "WOA09"
                                ! Determines how to specify the coordinate resolution. Valid options are:
                                !  PARAM       - use the vector-parameter DIAG_COORD_RES_RHO2
                                !  UNIFORM[:N] - uniformly distributed
                                !  FILE:string - read from a file. The string specifies
                                !                the filename and variable name, separated
                                !                by a comma or space, e.g. FILE:lev.nc,dz
                                !                or FILE:lev.nc,interfaces=zw
                                !  WOA09[:N]   - the WOA09 vertical grid (approximately)
                                !  FNC1:string - FNC1:dz_min,H_total,power,precision
                                !  HYBRID:string - read from a file. The string specifies
                                !                the filename and two variable names, separated
                                !                by a comma or space, for sigma-2 and dz. e.g.
                                !                HYBRID:vgrid.nc,sigma2,dz

! === module MOM_lateral_mixing_coeffs ===
RESOLN_SCALED_KH = True         !   [Boolean] default = False
                                ! If true, the Laplacian lateral viscosity is scaled away when the first
                                ! baroclinic deformation radius is well resolved.
RESOLN_SCALED_KHTH = True       !   [Boolean] default = False
                                ! If true, the interface depth diffusivity is scaled away when the first
                                ! baroclinic deformation radius is well resolved.

! === module MOM_set_visc ===
CHANNEL_DRAG = True             !   [Boolean] default = False
                                ! If true, the bottom drag is exerted directly on each layer proportional to the
                                ! fraction of the bottom it overlies.
PRANDTL_TURB = 0.0              !   [nondim] default = 1.0
                                ! The turbulent Prandtl number applied to shear instability.
HBBL = 10.0                     !   [m]
                                ! The thickness of a bottom boundary layer with a viscosity increased by
                                ! KV_EXTRA_BBL if BOTTOMDRAGLAW is not defined, or the thickness over which
                                ! near-bottom velocities are averaged for the drag law if BOTTOMDRAGLAW is
                                ! defined but LINEAR_DRAG is not.
DRAG_BG_VEL = 0.01              !   [m s-1] default = 0.0
                                ! DRAG_BG_VEL is either the assumed bottom velocity (with LINEAR_DRAG) or an
                                ! unresolved  velocity that is combined with the resolved velocity to estimate
                                ! the velocity magnitude.  DRAG_BG_VEL is only used when BOTTOMDRAGLAW is
                                ! defined.
BBL_THICK_MIN = 2.0             !   [m] default = 0.0
                                ! The minimum bottom boundary layer thickness that can be used with
                                ! BOTTOMDRAGLAW. This might be Kv/(cdrag*drag_bg_vel) to give Kv as the minimum
                                ! near-bottom viscosity.
KV = 1.0E-04                    !   [m2 s-1]
                                ! The background kinematic viscosity in the interior. The molecular value, ~1e-6
                                ! m2 s-1, may be used.
KV_BBL_MIN = 0.01               !   [m2 s-1] default = 1.0E-04
                                ! The minimum viscosities in the bottom boundary layer.
KV_TBL_MIN = 0.01               !   [m2 s-1] default = 1.0E-04
                                ! The minimum viscosities in the top boundary layer.

! === module MOM_thickness_diffuse ===
KHTH_MAX_CFL = 0.1              !   [nondimensional] default = 0.8
                                ! The maximum value of the local diffusive CFL ratio that is permitted for the
                                ! thickness diffusivity. 1.0 is the marginally unstable value in a pure layered
                                ! model, but much smaller numbers (e.g. 0.1) seem to work better for ALE-based
                                ! models.

! === module MOM_porous_barriers ===

! === module MOM_dynamics_split_RK2 ===

! === module MOM_continuity ===

! === module MOM_continuity_PPM ===
ETA_TOLERANCE = 1.0E-06         !   [m] default = 1.25E-09
                                ! The tolerance for the differences between the barotropic and baroclinic
                                ! estimates of the sea surface height due to the fluxes through each face.  The
                                ! total tolerance for SSH is 4 times this value.  The default is
                                ! 0.5*NK*ANGSTROM, and this should not be set less than about
                                ! 10^-15*MAXIMUM_DEPTH.

! === module MOM_CoriolisAdv ===
CORIOLIS_EN_DIS = True          !   [Boolean] default = False
                                ! If true, two estimates of the thickness fluxes are used to estimate the
                                ! Coriolis term, and the one that dissipates energy relative to the other one is
                                ! used.
BOUND_CORIOLIS = True           !   [Boolean] default = False
                                ! If true, the Coriolis terms at u-points are bounded by the four estimates of
                                ! (f+rv)v from the four neighboring v-points, and similarly at v-points.  This
                                ! option is always effectively false with CORIOLIS_EN_DIS defined and
                                ! CORIOLIS_SCHEME set to SADOURNY75_ENERGY.

! === module MOM_PressureForce ===

! === module MOM_PressureForce_FV ===
MASS_WEIGHT_IN_PRESSURE_GRADIENT = True !   [Boolean] default = False
                                ! If true, use mass weighting when interpolating T/S for integrals near the
                                ! bathymetry in FV pressure gradient calculations.
PRESSURE_RECONSTRUCTION_SCHEME = 0 ! default = 1
                                ! Order of vertical reconstruction of T/S to use in the integrals within the FV
                                ! pressure gradient calculation.
                                !  0: PCM or no reconstruction.
                                !  1: PLM reconstruction.
                                !  2: PPM reconstruction.

! === module MOM_hor_visc ===
LAPLACIAN = True                !   [Boolean] default = False
                                ! If true, use a Laplacian horizontal viscosity.
AH_VEL_SCALE = 0.01             !   [m s-1] default = 0.0
                                ! The velocity scale which is multiplied by the cube of the grid spacing to
                                ! calculate the biharmonic viscosity. The final viscosity is the largest of this
                                ! scaled viscosity, the Smagorinsky and Leith viscosities, and AH.
SMAGORINSKY_AH = True           !   [Boolean] default = False
                                ! If true, use a biharmonic Smagorinsky nonlinear eddy viscosity.
SMAG_BI_CONST = 0.06            !   [nondim] default = 0.0
                                ! The nondimensional biharmonic Smagorinsky constant, typically 0.015 - 0.06.

! === module MOM_vert_friction ===
HMIX_FIXED = 10.0               !   [m]
                                ! The prescribed depth over which the near-surface viscosity and diffusivity are
                                ! elevated when the bulk mixed layer is not used.
MAXVEL = 6.0                    !   [m s-1] default = 3.0E+08
                                ! The maximum velocity allowed before the velocity components are truncated.
CFL_TRUNCATE_RAMP_TIME = 8.6E+04 !   [s] default = 0.0
                                ! The time over which the CFL truncation value is ramped up at the beginning of
                                ! the run.

! === module MOM_barotropic ===
BOUND_BT_CORRECTION = True      !   [Boolean] default = False
                                ! If true, the corrective pseudo mass-fluxes into the barotropic solver are
                                ! limited to values that require less than maxCFL_BT_cont to be accommodated.
BT_PROJECT_VELOCITY = True      !   [Boolean] default = False
                                ! If true, step the barotropic velocity first and project out the velocity
                                ! tendency by 1+BEBT when calculating the transport.  The default (false) is to
                                ! use a predictor continuity step to find the pressure field, and then to do a
                                ! corrector continuity step using a weighted average of the old and new
                                ! velocities, with weights of (1-BEBT) and BEBT.
BT_NONLIN_STRESS = True         !   [Boolean] default = False
                                ! If true, use the full depth of the ocean at the start of the barotropic step
                                ! when calculating the surface stress contribution to the barotropic
                                ! acclerations.  Otherwise use the depth based on bathyT.
DYNAMIC_SURFACE_PRESSURE = True !   [Boolean] default = False
                                ! If true, add a dynamic pressure due to a viscous ice shelf, for instance.
BEBT = 0.2                      !   [nondim] default = 0.1
                                ! BEBT determines whether the barotropic time stepping uses the forward-backward
                                ! time-stepping scheme or a backward Euler scheme. BEBT is valid in the range
                                ! from 0 (for a forward-backward treatment of nonrotating gravity waves) to 1
                                ! (for a backward Euler treatment). In practice, BEBT must be greater than about
                                ! 0.05.
DTBT = -0.9                     !   [s or nondim] default = -0.98
                                ! The barotropic time step, in s. DTBT is only used with the split explicit time
                                ! stepping. To set the time step automatically based the maximum stable value
                                ! use 0, or a negative value gives the fraction of the stable value. Setting
                                ! DTBT to 0 is the same as setting it to -0.98. The value of DTBT that will
                                ! actually be used is an integer fraction of DT, rounding down.

! === module MOM_diagnostics ===

! === module MOM_diabatic_driver ===
! The following parameters are used for diabatic processes.

! === module MOM_tracer_advect ===

! === module MOM_tracer_hor_diff ===
CHECK_DIFFUSIVE_CFL = True      !   [Boolean] default = False
                                ! If true, use enough iterations the diffusion to ensure that the diffusive
                                ! equivalent of the CFL limit is not violated.  If false, always use the greater
                                ! of 1 or MAX_TR_DIFFUSION_CFL iteration.

! === module MOM_sum_output ===
MAXTRUNC = 100000               !   [truncations save_interval-1] default = 0
                                ! The run will be stopped, and the day set to a very large value if the velocity
                                ! is truncated more than MAXTRUNC times between energy saves.  Set MAXTRUNC to 0
                                ! to stop if there is any truncation of velocities.
ENERGYSAVEDAYS = 0.25           !   [days] default = 1.0
                                ! The interval in units of TIMEUNIT between saves of the energies of the run and
                                ! other globally summed diagnostics.

! === module ocean_stochastics_init ===

! === module MOM_surface_forcing ===

! === module MOM_restart ===

! === module MOM_main (MOM_driver) ===
DAYMAX = 1.0                    !   [days]
                                ! The final time of the whole simulation, in units of TIMEUNIT seconds.  This
                                ! also sets the potential end time of the present run segment if the end time is